Version 4
SHEET 1 1196 736
WIRE 0 -368 -160 -368
WIRE 208 -368 80 -368
WIRE -160 -320 -160 -368
WIRE 208 -304 208 -368
WIRE 208 -128 208 -224
WIRE -304 -48 -512 -48
WIRE -256 -48 -304 -48
WIRE -80 -48 -160 -48
WIRE 96 -48 -16 -48
WIRE -304 -16 -304 -48
WIRE -512 32 -512 -48
WIRE 208 48 208 -48
WIRE 272 48 208 48
WIRE 544 48 432 48
WIRE 592 48 544 48
WIRE 208 80 208 48
WIRE 544 80 544 48
WIRE 208 112 208 80
WIRE -224 160 -432 160
WIRE -48 160 -144 160
WIRE 96 160 96 -48
WIRE 96 160 32 160
WIRE 128 160 96 160
WIRE 176 160 128 160
WIRE -512 176 -512 112
WIRE 592 224 592 48
WIRE -432 256 -432 160
WIRE 208 256 208 208
WIRE 208 304 208 256
WIRE 352 304 208 304
WIRE 208 368 208 304
WIRE 352 384 352 304
WIRE -432 400 -432 336
WIRE 592 464 592 304
WIRE 208 512 208 448
WIRE 352 512 352 448
WIRE 352 512 208 512
WIRE 208 560 208 512
FLAG -432 400 0
FLAG 208 560 0
FLAG 592 464 0
FLAG -160 -320 0
FLAG -512 176 0
FLAG 128 160 VB
FLAG 208 80 VC
FLAG 208 256 VE
FLAG 432 80 0
FLAG 336 80 0
FLAG 512 176 0
FLAG 512 80 0
FLAG -336 -16 0
FLAG -336 80 0
FLAG -256 -16 0
FLAG -160 -16 0
FLAG 544 176 0
SYMBOL T502 208 160 R0
SYMATTR InstName X1
SYMBOL res 192 -320 R0
SYMATTR InstName RC
SYMATTR Value 428
SYMBOL res 576 208 R0
SYMATTR InstName R1
SYMATTR Value 50
SYMBOL res 192 352 R0
SYMATTR InstName RE
SYMATTR Value 143
SYMBOL res -128 144 R90
WINDOW 0 0 56 VBottom 2
WINDOW 3 32 56 VTop 2
SYMATTR InstName RB
SYMATTR Value 16.6k
SYMBOL ind -64 176 R270
WINDOW 0 32 56 VTop 2
WINDOW 3 5 56 VBottom 2
SYMATTR InstName LB
SYMATTR Value 1µ
SYMBOL ind 192 -144 R0
SYMATTR InstName LC
SYMATTR Value 1µ
SYMBOL cap 336 384 R0
SYMATTR InstName CE
SYMATTR Value 1µ
SYMBOL cap 336 32 R90
WINDOW 0 0 32 VBottom 2
WINDOW 3 32 32 VTop 2
SYMATTR InstName CC
SYMATTR Value 1µ
SYMBOL cap -16 -64 R90
WINDOW 0 0 32 VBottom 2
WINDOW 3 32 32 VTop 2
SYMATTR InstName CB
SYMATTR Value 1µ
SYMBOL voltage -432 240 R0
WINDOW 123 0 0 Left 0
WINDOW 39 0 0 Left 0
SYMATTR InstName VB
SYMATTR Value 5
SYMBOL voltage 96 -368 R90
WINDOW 0 -32 56 VBottom 2
WINDOW 3 32 56 VTop 2
WINDOW 123 0 0 Left 0
WINDOW 39 0 0 Left 0
SYMATTR InstName VCC
SYMATTR Value 10
SYMBOL Misc\\signal -512 16 R0
WINDOW 0 24 104 Left 2
WINDOW 3 24 16 Left 2
WINDOW 123 24 -12 Left 2
WINDOW 39 24 -40 Left 2
SYMATTR InstName V1
SYMATTR Value2 AC 1
SYMATTR SpiceLine Rser=50
SYMBOL tline 384 64 M0
SYMATTR InstName T1
SYMATTR Value Td=28.6p Z0=50
SYMBOL tline 528 128 M270
SYMATTR InstName T2
SYMATTR Value Td=22p Z0=50
SYMBOL tline -320 32 R90
SYMATTR InstName T3
SYMATTR Value Td=54.3p Z0=50
SYMBOL tline -208 -32 R0
SYMATTR InstName T4
SYMATTR Value Td=4p Z0=50
TEXT -592 720 Left 2 !.ac dec 1000 1G 10G
TEXT -592 656 Left 2 ;.op
TEXT -592 584 Left 2 !.net I(R1) V1
